58

 C        -1.216707       -1.782631        1.806349
 C        -1.217881        1.806068        1.782878
 C        -1.220547        1.782609       -1.806330
 C        -1.217070       -1.806334       -1.782610
 Cu        0.000000        0.000000        0.000000
 Cu       -2.436072        0.000000       -0.000000
 O        -2.345330       -1.378200        1.384451
 O        -2.346564        1.384536        1.378214
 O        -0.089251        1.396071        1.366389
 O        -0.088018       -1.366310        1.396334
 O        -2.349176        1.377809       -1.384717
 O        -0.088445       -1.396111       -1.366278
 O        -0.091858        1.366639       -1.396037
 O        -2.345761       -1.384908       -1.377913
 H        -3.357571        2.938140       -2.962350
 H         0.927536        4.745099        4.671722
 H         0.919050        2.976446        2.924057
 H         0.920065       -2.923381        2.977391
 C        -1.216776       -2.829820        2.867510
 C        -2.425699       -3.325814        3.361470
 C        -2.423565       -4.301505        4.349913
 C        -1.216868       -4.785952        4.849061
 C        -0.010124       -4.293120        4.358305
 C        -0.007898       -3.317356        3.369935
 H        -3.353629       -2.938400        2.962372
 H        -3.362075       -4.685108        4.731968
 H        -1.216904       -5.547365        5.620383
 H         0.928351       -4.670236        4.746849
 C        -1.216920       -2.867209       -2.830084
 C        -2.425753       -3.361232       -3.326237
 C        -2.423439       -4.349398       -4.302206
 C        -1.216650       -4.848213       -4.786769
 C        -0.009996       -4.357389       -4.293784
 C        -0.007951       -3.369291       -3.317744
 H        -3.353752       -2.962394       -2.938720
 H        -3.361879       -4.731503       -4.685930
 H        -1.216545       -5.619322       -5.548398
 H         0.928549       -4.745678       -4.670989
 H         0.919944       -2.976711       -2.923644
 C        -1.220705        2.829787       -2.867500
 C        -0.011884        3.317440       -3.369937
 C        -0.014216        4.293190       -4.358320
 C        -1.221014        4.785901       -4.849066
 C        -2.427658        4.301342       -4.349900
 C        -2.429685        3.325652       -3.361455
 H         0.916126        2.923571       -2.977393
 H         0.924216        4.670391       -4.746886
 H        -1.221135        5.547308       -5.620394
 H        -3.366210        4.684855       -4.731940
 C        -1.217806        2.866733        2.830564
 C        -2.426672        3.360525        3.326865
 C        -2.424424        4.348506        4.303023
 C        -1.217670        4.847367        4.787623
 C        -0.010982        4.356774        4.294487
 C        -0.008871        3.368856        3.318266
 H        -3.354645        2.961668        2.939306
 H        -3.362890        4.730432        4.686863
 H        -1.217617        5.618332        5.549396
